*HEADING
Kotoba CAE independent uniaxial bar comparison
*NODE
1,0.0,0.0,0.0
2,0.25,0.0,0.0
3,0.50,0.0,0.0
4,0.75,0.0,0.0
5,1.00,0.0,0.0
6,1.25,0.0,0.0
7,1.50,0.0,0.0
8,1.75,0.0,0.0
9,2.00,0.0,0.0
*ELEMENT,TYPE=T3D2,ELSET=BAR
1,1,2
2,2,3
3,3,4
4,4,5
5,5,6
6,6,7
7,7,8
8,8,9
*MATERIAL,NAME=STEEL
*ELASTIC
2.0E11,0.3
*SOLID SECTION,ELSET=BAR,MATERIAL=STEEL
0.01
*BOUNDARY
1,1,3,0.0
2,2,3,0.0
3,2,3,0.0
4,2,3,0.0
5,2,3,0.0
6,2,3,0.0
7,2,3,0.0
8,2,3,0.0
9,2,3,0.0
*STEP
*STATIC
*CLOAD
9,1,10000.0
*NODE FILE
U
*EL FILE
S
*END STEP
